6
Lattice="30.0 0.0 0.0 0.0 30.0 0.0 0.0 0.0 30.0" Properties=species:S:1:pos:R:3:forces:R:3 energy=-18.62831799999981 stress="-3.5991780920211575e-05 8.263419088824084e-07 -1.5884127804072964e-05 8.263419088824084e-07 5.692577594523258e-06 9.181576765360095e-08 -1.5884127804072964e-05 9.181576765360095e-08 -4.77441991798725e-06" pbc="T T T" 
Se      -2.06037144       0.02036676       0.72285054       0.01386763      -0.00530797      -0.01631417
Se       1.07555241      -1.84509045       0.43371348      -0.02053602       0.02247617      -0.03158788
Se       1.10347701       1.80766200       0.45722199       0.49081450      -0.02614385       0.19816720
Se      -1.04265399       1.85245401      -0.41847099      -0.49400835      -0.01405486      -0.19727495
Se       2.06116641      -0.03010374      -0.72443856      -0.00792645      -0.00648558       0.01819323
Se      -1.12718001      -1.80310461      -0.46468749       0.02119605       0.02645925       0.03063827
6
Lattice="30.0 0.0 0.0 0.0 30.0 0.0 0.0 0.0 30.0" Properties=species:S:1:pos:R:3:forces:R:3 energy=-18.64155099999971 stress="2.2035784236864225e-06 -2.754473029608028e-07 -1.0099734441896103e-06 -2.754473029608028e-07 3.672630706144038e-06 0.0 -1.0099734441896103e-06 0.0 2.2035784236864225e-06" pbc="T T T" 
Se      -2.05829340       0.02520627       0.72048729       0.01846914       0.00950902      -0.02065103
Se       1.07164725      -1.84680261       0.43206621       0.00099396       0.00717058      -0.01416961
Se       1.12797000       1.80715101       0.46721601       0.00258501      -0.01635579      -0.01953720
Se      -1.06714701       1.85296500      -0.42846501      -0.00210080      -0.01790334       0.01750978
Se       2.05959810      -0.02536629      -0.72169275      -0.01630915       0.01008320       0.02817356
Se      -1.12325610      -1.80465975      -0.46324713      -0.00064548       0.01091444       0.01155894
6
Lattice="30.0 0.0 0.0 0.0 30.0 0.0 0.0 0.0 30.0" Properties=species:S:1:pos:R:3:forces:R:3 energy=-18.630420999999842 stress="3.222733444641393e-05 -9.181576765360095e-07 1.1568786724353718e-05 -9.181576765360095e-07 2.2953941913400235e-06 -3.672630706144038e-07 1.1568786724353718e-05 -3.672630706144038e-07 7.987971785863282e-06" pbc="T T T" 
Se      -2.05444833       0.03474297       0.71675148       0.01638387      -0.02253328      -0.02873779
Se       1.06861059      -1.85157585       0.43328232      -0.00049761       0.01752294      -0.02603772
Se       1.15246299       1.80663999       0.47721000      -0.36452401       0.01426523      -0.16846952
Se      -1.09164000       1.85347599      -0.43845900       0.36716816      -0.00640382       0.17012821
Se       2.05664457      -0.01595829      -0.71691369      -0.01254117      -0.02439697       0.03074063
Se      -1.12041930      -1.80864153      -0.46492809       0.00010081       0.02193611       0.02371023
6
Lattice="30.0 0.0 0.0 0.0 30.0 0.0 0.0 0.0 30.0" Properties=species:S:1:pos:R:3:forces:R:3 energy=-18.58336599999984 stress="5.463038175389256e-05 -1.560868050111216e-06 2.2953941913400235e-05 -1.560868050111216e-06 -2.6626572619544276e-06 -4.5907883826800474e-07 2.2953941913400235e-05 -4.5907883826800474e-07 9.089760997706493e-06" pbc="T T T" 
Se      -2.05246065       0.03798477       0.71271636      -0.00161460       0.01183091       0.00330922
Se       1.06592403      -1.85309445       0.43129413       0.00237462      -0.01566568       0.02178308
Se       1.17695601       1.80612900       0.48720399      -0.65381256       0.01619764      -0.29433631
Se      -1.11613299       1.85398701      -0.44845299       0.65712658      -0.00959405       0.29232797
Se       2.05515165      -0.01288956      -0.71266431       0.00368241       0.01208375       0.00227262
Se      -1.11787011      -1.80983283      -0.46315263      -0.00423787      -0.01413526      -0.02774398
6
Lattice="30.0 0.0 0.0 0.0 30.0 0.0 0.0 0.0 30.0" Properties=species:S:1:pos:R:3:forces:R:3 energy=-18.555821999999807 stress="7.400350872880236e-05 -1.744499585418418e-06 3.0482834860995515e-05 -1.744499585418418e-06 -3.397183403183235e-06 -1.1017892118432113e-06 3.0482834860995515e-05 -1.1017892118432113e-06 1.5057785895190556e-05" pbc="T T T" 
Se      -2.05183764       0.04443123       0.70954692      -0.00206948      -0.01055145      -0.02155580
Se       1.06217334      -1.85788230       0.43175856       0.01026937      -0.00696602       0.00147581
Se       1.20144900       1.80561801       0.49719801      -0.87090611       0.04045446      -0.39522664
Se      -1.14062601       1.85449800      -0.45844701       0.86879441      -0.00027141       0.39534362
Se       2.05504389      -0.00662484      -0.70892619       0.00473039      -0.01793316       0.02427659
Se      -1.11445194      -1.81455822      -0.46426020      -0.01368627      -0.00432313      -0.00614705
6
Lattice="30.0 0.0 0.0 0.0 30.0 0.0 0.0 0.0 30.0" Properties=species:S:1:pos:R:3:forces:R:3 energy=-18.500503999999864 stress="8.988763653287533e-05 -2.2035784236864225e-06 3.746083320266918e-05 -2.2035784236864225e-06 -3.2135518678760333e-06 -9.181576765360095e-07 3.746083320266918e-05 -9.181576765360095e-07 1.8546785066027393e-05" pbc="T T T" 
Se      -2.05242792       0.04952691       0.70518264      -0.01225915      -0.02818695      -0.01998033
Se       1.05975771      -1.86270528       0.43254522       0.00487052       0.00443346      -0.00639392
Se       1.22594199       1.80510699       0.50719200      -1.02269055       0.04063665      -0.47560103
Se      -1.16511900       1.85500899      -0.46844100       1.03540304       0.00859888       0.46836661
Se       2.05613304      -0.00241515      -0.70409565      -0.00038870      -0.02529868       0.03867983
Se      -1.11258747      -1.81910694      -0.46567161      -0.00447092      -0.00230605      -0.00205120
6
Lattice="30.0 0.0 0.0 0.0 30.0 0.0 0.0 0.0 30.0" Properties=species:S:1:pos:R:3:forces:R:3 energy=-18.43630499999972 stress="0.00010476179089275867 -2.5708414943008263e-06 4.462246307965006e-05 -2.5708414943008263e-06 -6.335287968098465e-06 -1.1936049794968124e-06 4.462246307965006e-05 -1.1936049794968124e-06 2.221941577217143e-05" pbc="T T T" 
Se      -2.05242801       0.04952700       0.70518300      -0.01682342       0.01999742      -0.03413644
Se       1.05975801      -1.86270501       0.43254501      -0.03434472      -0.03455833       0.00091560
Se       1.25043501       1.80459600       0.51718599      -1.15707480       0.03787230      -0.55862224
Se      -1.18961301       1.85552001      -0.47843499       1.16081372      -0.01340396       0.55846599
Se       2.05613301      -0.00241500      -0.70409601       0.01714041       0.02090693       0.03981066
Se      -1.11258699      -1.81910700      -0.46567200       0.02769791      -0.03183777      -0.00395608
6
Lattice="30.0 0.0 0.0 0.0 30.0 0.0 0.0 0.0 30.0" Properties=species:S:1:pos:R:3:forces:R:3 energy=-18.296330999999782 stress="0.00012955204815923093 -2.387209958993625e-06 5.0315040674173314e-05 -2.387209958993625e-06 2.9381045649152304e-06 -1.4690522824576152e-06 5.0315040674173314e-05 -1.4690522824576152e-06 2.130125809563542e-05" pbc="T T T" 
Se      -2.08772913       0.04009287       0.64422852       0.01476505      -0.00938350       0.00197363
Se       1.03589706      -1.88711424       0.46352793      -0.02443615       0.02922349       0.00522081
Se       1.29942201       1.80357399       0.53717400      -1.30621970       0.01938946      -0.56485963
Se      -1.23860001       1.85654199      -0.49842300       1.31626744      -0.02604286       0.55758197
Se       2.09246526      -0.01673373      -0.64240851      -0.03827303      -0.01951570       0.01976572
Se      -1.09769781      -1.84053210      -0.49937187       0.03482644       0.00788192      -0.02022972
6
Lattice="30.0 0.0 0.0 0.0 30.0 0.0 0.0 0.0 30.0" Properties=species:S:1:pos:R:3:forces:R:3 energy=-18.13207899999975 stress="0.00013368375770364297 -2.754473029608028e-06 5.564035519808217e-05 -2.754473029608028e-06 6.427103735752066e-07 -1.1017892118432113e-06 5.564035519808217e-05 -1.1017892118432113e-06 2.552478340770106e-05" pbc="T T T" 
Se      -2.09001711       0.04510761       0.64380582      -0.00255030      -0.01827777      -0.03705682
Se       1.02912813      -1.88965062       0.46525242       0.03076675       0.00798865       0.03517681
Se       1.34840901       1.80255099       0.55716201      -1.41258611       0.04008502      -0.63488001
Se      -1.28758701       1.85756400      -0.51841101       1.40362057      -0.02529840       0.64485812
Se       2.09258883      -0.01132968      -0.63933876       0.01053692      -0.01901585       0.01849688
Se      -1.09030017      -1.84480800      -0.50236248      -0.03819557       0.01660658      -0.02689644
6
Lattice="30.0 0.0 0.0 0.0 30.0 0.0 0.0 0.0 30.0" Properties=species:S:1:pos:R:3:forces:R:3 energy=-17.980234999999766 stress="0.00014176354525715986 -2.4790257266472253e-06 6.0690222419030225e-05 -2.4790257266472253e-06 -1.836315353072019e-06 -1.836315353072019e-06 6.0690222419030225e-05 -1.836315353072019e-06 2.8279256437309092e-05" pbc="T T T" 
Se      -2.10102501       0.04589589       0.63169077      -0.02160812      -0.00163111      -0.03968879
Se       1.02437091      -1.89277929       0.47090292       0.00402157      -0.00218647       0.02883312
Se       1.39739601       1.80152901       0.57714999      -1.44312216       0.04731491      -0.66983446
Se      -1.33657401       1.85858700      -0.53839899       1.44253348      -0.02604579       0.67976790
Se       2.10289224      -0.01045026      -0.62769444       0.02617705      -0.01333212       0.02733952
Se      -1.08601080      -1.84819128      -0.50808780      -0.00155302      -0.00203896      -0.02795828
6
Lattice="30.0 0.0 0.0 0.0 30.0 0.0 0.0 0.0 30.0" Properties=species:S:1:pos:R:3:forces:R:3 energy=-17.811993999999686 stress="0.00015369959505212797 -3.672630706144038e-06 6.023114358076222e-05 -3.672630706144038e-06 -4.682604150333648e-06 -1.1017892118432113e-06 6.023114358076222e-05 -1.1017892118432113e-06 2.6534756851890673e-05" pbc="T T T" 
Se      -2.15558094       0.02723280       0.55406310       0.01795805      -0.03842118      -0.01785390
Se       0.99417729      -1.89241899       0.52885620      -0.02272567       0.00030843       0.00403375
Se       1.44638301       1.80050700       0.59713800      -1.42237842       0.05962700      -0.61174707
Se      -1.38556101       1.85960901      -0.55838700       1.42059646       0.00652160       0.60567839
Se       2.15531520      -0.03288717      -0.55528089      -0.01836678      -0.03045315       0.01960528
Se      -1.05460635      -1.84881849      -0.56611455       0.02280319       0.00029884      -0.00413099
6
Lattice="30.0 0.0 0.0 0.0 30.0 0.0 0.0 0.0 30.0" Properties=species:S:1:pos:R:3:forces:R:3 energy=-17.653871999999865 stress="0.00014947606974006233 -2.4790257266472253e-06 6.087385395433743e-05 -2.4790257266472253e-06 -1.1936049794968124e-06 -1.6526838177648169e-06 6.087385395433743e-05 -1.6526838177648169e-06 2.846288797261629e-05" pbc="T T T" 
Se      -2.16300486       0.02451870       0.54810018       0.00294533      -0.02777177      -0.03692261
Se       0.98962482      -1.89953367       0.53282886      -0.01299842       0.01409260      -0.01159079
Se       1.49537001       1.79948499       0.61712601      -1.36702686       0.04763167      -0.60796276
Se      -1.43454801       1.86063099      -0.57837501       1.36288561      -0.01013776       0.60846614
Se       2.16220983      -0.03354798      -0.54783456      -0.00440217      -0.03635571       0.03537008
Se      -1.05019368      -1.85600223      -0.57032325       0.01864086       0.01030002       0.00947017
6
Lattice="30.0 0.0 0.0 0.0 30.0 0.0 0.0 0.0 30.0" Properties=species:S:1:pos:R:3:forces:R:3 energy=-17.49078399999985 stress="0.00014479346558972868 -3.029920332568831e-06 6.0690222419030225e-05 -3.029920332568831e-06 -4.958051453294451e-06 -2.0199468883792206e-06 6.0690222419030225e-05 -2.0199468883792206e-06 2.736109876077308e-05" pbc="T T T" 
Se      -2.17439472       0.02153502       0.53455641      -0.01300996      -0.03089127      -0.03149111
Se       0.98668434      -1.90314027       0.53755164      -0.02657770      -0.00345914       0.00539597
Se       1.54435701       1.79846301       0.63711399      -1.30002691       0.07107828      -0.58334383
Se      -1.48353501       1.86165300      -0.59836299       1.29784795      -0.00261018       0.59337286
Se       2.17386015      -0.03766455      -0.53484021       0.01626812      -0.03812242       0.02582966
Se      -1.04727633      -1.85921595      -0.57532686       0.02814723       0.00464321      -0.00784624
6
Lattice="30.0 0.0 0.0 0.0 30.0 0.0 0.0 0.0 30.0" Properties=species:S:1:pos:R:3:forces:R:3 energy=-17.212171999999782 stress="0.00013056202160342052 -3.856262241451239e-06 5.7935749389422194e-05 -3.856262241451239e-06 -4.315341079719244e-06 -1.836315353072019e-07 5.7935749389422194e-05 -1.836315353072019e-07 2.332120498401464e-05" pbc="T T T" 
Se      -2.22300348       0.00554382       0.47257929      -0.00294042      -0.03584594       0.00951383
Se       0.95597202      -1.90291482       0.57949311       0.03351228      -0.00870144      -0.00869892
Se       1.64232999       1.79641800       0.67709001      -1.10630021       0.03206945      -0.49108444
Se      -1.58150799       1.86369801      -0.63833901       1.12268889       0.01650299       0.47142273
Se       2.22377865      -0.05997657      -0.47436015      -0.00976896       0.00111519       0.00945402
Se      -1.01762949      -1.85849328      -0.61842930      -0.03033840      -0.00069307       0.00513318
6
Lattice="30.0 0.0 0.0 0.0 30.0 0.0 0.0 0.0 30.0" Properties=species:S:1:pos:R:3:forces:R:3 energy=-16.989787999999862 stress="0.00012294131288817167 -3.397183403183235e-06 4.9580514532944513e-05 -3.397183403183235e-06 -5.968024897484061e-06 -4.5907883826800474e-07 4.9580514532944513e-05 -4.5907883826800474e-07 2.139307386328902e-05" pbc="T T T" 
Se      -2.29273965      -0.02898576       0.37738008       0.01138778      -0.02478736      -0.01725969
Se       0.91514307      -1.89326472       0.64190550      -0.01010097      -0.01675277      -0.00175002
Se       1.74030399       1.79437401       0.71706699      -0.95900687       0.04848962      -0.40680779
Se      -1.67948199       1.86574299      -0.67831500       0.95957323       0.01210334       0.40581125
Se       2.29036869      -0.09756426      -0.37802055      -0.00232212      -0.01048948       0.01027045
Se      -0.97456650      -1.84900845      -0.68049498      -0.00229918      -0.00623822       0.01022451
6
Lattice="30.0 0.0 0.0 0.0 30.0 0.0 0.0 0.0 30.0" Properties=species:S:1:pos:R:3:forces:R:3 energy=-16.75434399999972 stress="0.00010356818591326187 -1.9281311207256197e-06 4.379612117076765e-05 -1.9281311207256197e-06 3.3053676355296338e-06 -1.4690522824576152e-06 4.379612117076765e-05 -1.4690522824576152e-06 2.0383100419099408e-05" pbc="T T T" 
Se      -2.30302308      -0.03197790       0.37453665       0.03546071       0.01166713      -0.02960716
Se       0.91177986      -1.89700107       0.64389741       0.03218893       0.00813011      -0.01002617
Se       1.83827799       1.79232900       0.75704301      -0.75040438       0.00693267      -0.35288070
Se      -1.77745599       1.86778800      -0.71829201       0.74476495      -0.03729820       0.35942125
Se       2.30103837      -0.09930747      -0.37544628      -0.03231440       0.00047290       0.02297700
Se      -0.97250904      -1.85204946      -0.68163570      -0.03310812       0.01031899       0.00876476
6
Lattice="30.0 0.0 0.0 0.0 30.0 0.0 0.0 0.0 30.0" Properties=species:S:1:pos:R:3:forces:R:3 energy=-16.577402999999777 stress="6.675006308416789e-05 -1.377236514804014e-06 2.90137825785379e-05 -1.377236514804014e-06 1.0099734441896103e-06 -5.508946059216056e-07 2.90137825785379e-05 -5.508946059216056e-07 1.1293339421392917e-05" pbc="T T T" 
Se      -2.29667673      -0.03347088       0.36466989      -0.00523299       0.00486910      -0.00119777
Se       0.91532697      -1.88699925       0.64881468      -0.02402532       0.00289655       0.01524803
Se       1.93625199       1.79028399       0.79701900      -0.46827217       0.00368789      -0.21381830
Se      -1.87542999       1.86983301      -0.75826800       0.46781210      -0.01604052       0.21327292
Se       2.29504194      -0.10176768      -0.36594771       0.00452388       0.00787079       0.00340967
Se      -0.97571214      -1.84224861      -0.68637189       0.02586890       0.00050633      -0.01364176
6
Lattice="30.0 0.0 0.0 0.0 30.0 0.0 0.0 0.0 30.0" Properties=species:S:1:pos:R:3:forces:R:3 energy=-17.331702999999834 stress="0.00013496917845079337 -6.335287968098465e-06 6.528101080171026e-05 -6.335287968098465e-06 -0.00015966761994961205 -4.131709544412042e-06 6.528101080171026e-05 -4.131709544412042e-06 2.0199468883792206e-06" pbc="T T T" 
Se      -1.13478951       1.20110598       1.24100289      -0.25171495       0.65698355      -0.02186232
Se       0.95840544      -1.01816772      -0.76196403      -0.27417843      -0.95543245      -0.29777928
Se       2.03422599       1.78823901       0.83699601      -0.92794874       0.24237544      -0.26664908
Se      -1.97340399       1.87187799      -0.79824399       0.94488035       0.18364854       0.33197642
Se       1.14641118       1.21843293      -1.20618048       0.25240745       0.72907050      -0.02131015
Se      -1.00573233      -1.02559347       0.70952700       0.24577452      -0.85976835       0.27347873
6
Lattice="30.0 0.0 0.0 0.0 30.0 0.0 0.0 0.0 30.0" Properties=species:S:1:pos:R:3:forces:R:3 energy=-17.84680699999967 stress="0.00018794687638692113 -2.387209958993625e-06 7.400350872880236e-05 -2.387209958993625e-06 1.551686473345856e-05 -1.560868050111216e-06 7.400350872880236e-05 -1.560868050111216e-06 3.9021701252780404e-05" pbc="T T T" 
Se      -1.40254866       1.67418171       1.28074263       0.01759532       0.00983380       0.02018103
Se      -0.02993961      -0.62354508      -1.12397895      -0.03120957       0.10169084       0.10375662
Se       2.13219999       1.78619400       0.87697200      -1.21066906      -0.04566120      -0.50718845
Se      -2.07137799       1.87392300      -0.83822100       1.18796825      -0.11052618       0.44965505
Se       1.41850485       1.69559145      -1.23821457      -0.02126567      -0.02564614       0.03498115
Se       0.00614286      -0.65281764       1.09326318       0.05272693       0.07055295      -0.10439456
6
Lattice="30.0 0.0 0.0 0.0 30.0 0.0 0.0 0.0 30.0" Properties=species:S:1:pos:R:3:forces:R:3 energy=-17.590986999999814 stress="0.00016921645978558653 -4.039893776758441e-06 6.82191153666255e-05 -4.039893776758441e-06 1.0099734441896103e-06 -1.560868050111216e-06 6.82191153666255e-05 -1.560868050111216e-06 2.5616599175354663e-05" pbc="T T T" 
Se      -1.50771945       1.66441890       1.24377951       0.00118191      -0.00672896       0.01032735
Se       0.03546357      -0.54578889      -1.12247154      -0.02277542       0.00230404      -0.00700510
Se       2.23017399       1.78414899       0.91694799      -1.03148188       0.02521224      -0.41104944
Se      -2.16935199       1.87596801      -0.87819699       1.04835294      -0.02955406       0.41344077
Se       1.52535789       1.67479659      -1.19931129       0.00396510      -0.00450730      -0.00960233
Se      -0.05654625      -0.58062366       1.09582941       0.02085766       0.01271549       0.00711154
6
Lattice="30.0 0.0 0.0 0.0 30.0 0.0 0.0 0.0 30.0" Properties=species:S:1:pos:R:3:forces:R:3 energy=-17.375365999999758 stress="0.00013983541413643423 -2.9381045649152304e-06 5.6558512874618185e-05 -2.9381045649152304e-06 -2.387209958993625e-06 -1.2854207471504131e-06 5.6558512874618185e-05 -1.2854207471504131e-06 2.2953941913400235e-05" pbc="T T T" 
Se      -1.62363075       1.64124381       1.20561699      -0.01766762      -0.00775028       0.00264201
Se       0.10636272      -0.48564921      -1.12161786      -0.03229437      -0.01333516       0.00981514
Se       2.32814799       1.78210401       0.95692500      -0.83079775       0.03943347      -0.33088833
Se      -2.26732599       1.87801299      -0.91817301       0.84396444      -0.00260592       0.32864913
Se       1.64538534       1.64485956      -1.16416359       0.02239341      -0.00832444      -0.00064105
Se      -0.12559890      -0.51806817       1.09642404       0.03642513      -0.00982794      -0.00928575
6
Lattice="30.0 0.0 0.0 0.0 30.0 0.0 0.0 0.0 30.0" Properties=species:S:1:pos:R:3:forces:R:3 energy=-17.198567999999796 stress="0.00011385155189046516 -2.846288797261629e-06 4.801964648283329e-05 -2.846288797261629e-06 2.387209958993625e-06 -1.0099734441896103e-06 4.801964648283329e-05 -1.0099734441896103e-06 2.0107653116138607e-05" pbc="T T T" 
Se      -1.78070133       1.60542225       1.17509883      -0.00495177       0.01206364       0.00948791
Se       0.13749063      -0.41616240      -1.11783279      -0.00768680       0.01001859       0.00104179
Se       2.42612100       1.78005900       0.99690099      -0.65081509      -0.01768978      -0.29013780
Se      -2.36529900       1.88005800      -0.95814999       0.64887046      -0.04251888       0.26149492
Se       1.79635020       1.60524708      -1.13653041       0.01423926       0.02174498       0.02265564
Se      -0.15825051      -0.45116409       1.09554177      -0.00204423       0.01851413      -0.00003288
