3
Lattice="30.0 0.0 0.0 0.0 30.0 0.0 0.0 0.0 30.0" Properties=species:S:1:pos:R:3:forces:R:3 energy=-5.022344999999973 stress="-1.836315353072019e-07 -0.0 0.0 -0.0 -1.551686473345856e-05 6.271016930740944e-05 0.0 6.271016930740944e-05 -0.0002311002871841136" pbc="T T T" 
Mo      -0.00000300       0.04132701       1.51043901      -0.00000532      -0.76924890       2.84060515
Mo       0.00000201       0.62957601      -0.67910700       0.00001010       0.73522130      -2.86490511
Mo       0.00000894      -0.71437074      -0.82851804      -0.00000450       0.03380327       0.01169286
3
Lattice="30.0 0.0 0.0 0.0 30.0 0.0 0.0 0.0 30.0" Properties=species:S:1:pos:R:3:forces:R:3 energy=-5.3513869999999315 stress="-1.836315353072019e-07 0.0 0.0 0.0 -8.355234856477685e-06 2.4790257266472257e-05 0.0 2.4790257266472257e-05 -9.539658259209137e-05" pbc="T T T" 
Mo      -0.00000300       0.02073201       1.58709699       0.00001453      -0.28793200       1.08958200
Mo       0.00000201       0.65017101      -0.75576501      -0.00000792       0.31559175      -1.08733727
Mo       0.00000873      -0.69365037      -0.82336503      -0.00000460      -0.03307131      -0.01156590
3
Lattice="30.0 0.0 0.0 0.0 30.0 0.0 0.0 0.0 30.0" Properties=species:S:1:pos:R:3:forces:R:3 energy=-5.428069999999934 stress="-1.836315353072019e-07 -0.0 -0.0 -0.0 1.9281311207256197e-06 -8.263419088824084e-07 -0.0 -8.263419088824084e-07 -2.754473029608028e-07" pbc="T T T" 
Mo      -0.00000300       0.00013701       1.66375500       0.00013555       0.01139328      -0.00175133
Mo       0.00000201       0.67076601      -0.83242299      -0.00006803      -0.03756883       0.01429258
Mo       0.00000837      -0.67114383      -0.82778322      -0.00006621       0.02590330      -0.01619749
3
Lattice="30.0 0.0 0.0 0.0 30.0 0.0 0.0 0.0 30.0" Properties=species:S:1:pos:R:3:forces:R:3 energy=-5.373933999999963 stress="-1.836315353072019e-07 -0.0 -0.0 -0.0 4.498972615026447e-06 -1.2119681330275324e-05 -0.0 -1.2119681330275324e-05 3.88380697174732e-05" pbc="T T T" 
Mo      -0.00000300      -0.02045799       1.74041301      -0.00000445       0.12888553      -0.40072487
Mo       0.00000201       0.69136101      -0.90908100       0.00000848      -0.15512783       0.43624515
Mo       0.00000810      -0.64488360      -0.84565173      -0.00000964       0.03110238      -0.03956278
3
Lattice="30.0 0.0 0.0 0.0 30.0 0.0 0.0 0.0 30.0" Properties=species:S:1:pos:R:3:forces:R:3 energy=-5.278167999999937 stress="-9.181576765360095e-08 0.0 -0.0 0.0 5.2334987562552535e-06 -1.7812258924798582e-05 -0.0 -1.7812258924798582e-05 6.243472200444864e-05" pbc="T T T" 
Mo      -0.00000300      -0.04105299       1.81707099       0.00000792       0.17225935      -0.60604202
Mo       0.00000201       0.71195601      -0.98573901      -0.00002574      -0.19190420       0.62524698
Mo       0.00000783      -0.61605312      -0.86392932       0.00002574       0.02098938      -0.02776265
3
Lattice="30.0 0.0 0.0 0.0 30.0 0.0 0.0 0.0 30.0" Properties=species:S:1:pos:R:3:forces:R:3 energy=-5.155364999999961 stress="-1.836315353072019e-07 0.0 -0.0 0.0 5.784393362176859e-06 -2.166852116624982e-05 -0.0 -2.166852116624982e-05 8.355234856477686e-05" pbc="T T T" 
Mo      -0.00000300      -0.06164799       1.89372900       0.00000270       0.19843817      -0.77220942
Mo       0.00000201       0.73255101      -1.06239699      -0.00000347      -0.19864352       0.74990353
Mo       0.00000780      -0.58309878      -0.86695422       0.00000152       0.00231605       0.01648548
3
Lattice="30.0 0.0 0.0 0.0 30.0 0.0 0.0 0.0 30.0" Properties=species:S:1:pos:R:3:forces:R:3 energy=-5.016406999999958 stress="-9.181576765360095e-08 0.0 -0.0 0.0 6.702551038712869e-06 -2.5157520337086657e-05 -0.0 -2.5157520337086657e-05 9.438660914790176e-05" pbc="T T T" 
Mo      -0.00000300      -0.08224299       1.97038701      -0.00000267       0.21681240      -0.82959067
Mo       0.00000201       0.75314601      -1.13905500       0.00001831      -0.21941500       0.81344031
Mo       0.00000843      -0.54069660      -0.84129702      -0.00001550       0.00204657       0.01044166
