7
Lattice="6.253541 0.0 0.0 0.0 6.253541 0.0 0.0 0.0 6.253541" Properties=species:S:1:pos:R:3:forces:R:3 energy=-20.93529599999988 stress="-0.0010478933562305477 1.836315353072019e-07 -1.836315353072019e-07 1.836315353072019e-07 -0.0010478933562305477 1.836315353072019e-07 -1.836315353072019e-07 1.836315353072019e-07 -0.0010478933562305477" pbc="T T T" 
Se       3.29931400       0.17254300      -0.17254300       0.01440651       0.01440510      -0.01440510
Se      -0.17254300       2.95422700      -0.17254300      -0.01440510      -0.01440651      -0.01440510
Se       4.69015600       1.56338500       1.56338500      -0.00000987       0.00000987       0.00001239
Se      -0.17254300       0.17254300       3.29931400      -0.01440512       0.01440510       0.01440651
Se       3.29931400       2.95422700       3.29931400       0.01441152      -0.01441150       0.01441152
Se       1.56338500       1.56338500       4.69015600       0.00001237       0.00000990      -0.00000990
Se       4.69015600       4.69015600       4.69015600      -0.00000990      -0.00001237      -0.00000990
8
Lattice="6.253541 0.0 0.0 0.0 6.253541 0.0 0.0 0.0 6.253541" Properties=species:S:1:pos:R:3:forces:R:3 energy=-23.416623999999956 stress="-0.00513397046411875 9.181576765360095e-08 9.181576765360095e-08 9.181576765360095e-08 -0.00513397046411875 9.181576765360095e-08 9.181576765360095e-08 9.181576765360095e-08 -0.00513397046411875" pbc="T T T" 
Se       3.12677100       0.00000000       0.00000000       0.00001782      -0.00001172      -0.00001172
Se       0.00000000       3.12677100       0.00000000      -0.00001172       0.00001782      -0.00001172
Se       4.69015600       1.56338500       1.56338500       0.00001165      -0.00001802      -0.00001805
Se       1.56338500       4.69015600       1.56338500      -0.00001802       0.00001165      -0.00001805
Se       0.00000000       0.00000000       3.12677100      -0.00001172      -0.00001172       0.00001782
Se       3.12677100       3.12677100       3.12677100       0.00001784       0.00001784       0.00001784
Se       1.56338500       1.56338500       4.69015600      -0.00001802      -0.00001802       0.00001167
Se       4.69015600       4.69015600       4.69015600       0.00001162       0.00001162       0.00001165
7
Lattice="6.253541 0.0 0.0 0.0 6.253541 0.0 0.0 0.0 6.253541" Properties=species:S:1:pos:R:3:forces:R:3 energy=-20.93529599999988 stress="-0.0010478933562305477 1.836315353072019e-07 -1.836315353072019e-07 1.836315353072019e-07 -0.0010478933562305477 1.836315353072019e-07 -1.836315353072019e-07 1.836315353072019e-07 -0.0010478933562305477" pbc="T T T" 
Se       3.29931400       0.17254300      -0.17254300       0.01440651       0.01440510      -0.01440510
Se      -0.17254300       2.95422700      -0.17254300      -0.01440510      -0.01440651      -0.01440510
Se       4.69015600       1.56338500       1.56338500      -0.00000987       0.00000987       0.00001239
Se      -0.17254300       0.17254300       3.29931400      -0.01440512       0.01440510       0.01440651
Se       3.29931400       2.95422700       3.29931400       0.01441152      -0.01441150       0.01441152
Se       1.56338500       1.56338500       4.69015600       0.00001237       0.00000990      -0.00000990
Se       4.69015600       4.69015600       4.69015600      -0.00000990      -0.00001237      -0.00000990
